@<TRIPOS>MOLECULE
sucrose
46 45 1  0       0
SMALL
NO_CHARGES

@<TRIPOS>ATOM
1	O1	1.8062 3.0196 2.6202	O	1	SUCROSE 0.000
2	O2	2.4256 3.7960 5.2452	O	1	SUCROSE 0.000
3	O3	3.2672 6.5100 4.7010	O	1	SUCROSE 0.000
4	O4	3.6886 7.0828 1.9075	O	1	SUCROSE 0.000
5	O5	3.9935 3.4713 1.9453	O	1	SUCROSE 0.000
6	O6	6.1586 4.7535 0.8013	O	1	SUCROSE 0.000
7	O7	0.3134 2.0464 4.7446	O	1	SUCROSE 0.000
8	O8	2.2477 0.8226 1.9381	O	1	SUCROSE 0.000
9	O9	-0.7888 2.7671 1.7678	O	1	SUCROSE 0.000
10	O10	-0.2350 0.8574 -0.6369	O	1	SUCROSE 0.000
11	O11	3.4568 2.0760 -0.4859	O	1	SUCROSE 0.000
12	C1	3.1688 3.1205 3.0422	C.ar	1   	SUCROSE 0.000
13	C2	3.3181 4.1485 4.1607	C.ar	1   	SUCROSE 0.000
14	C3	3.0195 5.5473 3.6874	C.ar	1   	SUCROSE 0.000
15	C4	3.9639 5.8433 2.5250	C.ar	1   	SUCROSE 0.000
16	C5	3.8030 4.8074 1.4240	C.ar	1   	SUCROSE 0.000
17	C6	4.8448 4.9772 0.3130	C.ar	1   	SUCROSE 0.000
18	C7	1.0905 1.1455 3.9645	C.ar	1   	SUCROSE 0.000
19	C8	1.3202 1.6834 2.5626	C.ar	1   	SUCROSE 0.000
20	C9	0.0773 1.6625 1.6504	C.ar	1   	SUCROSE 0.000
21	C10	0.6914 1.4536 0.2720	C.ar	1   	SUCROSE 0.000
22	C11	1.8708 0.5432 0.5623	C.ar	1   	SUCROSE 0.000
23	C12	3.0555 0.7059 -0.3356	C.ar	1   	SUCROSE 0.000
24  H1      2.8480 3.2642 5.8351	H	1	SUCROSE 0.000
25  H2	2.5833 6.6328 5.1274	H	1	SUCROSE 0.000   
26	H3	3.5679 7.7643 2.5259	H	1	SUCROSE 0.000	
27	H4	6.3842 3.6471 0.8310	H	1	SUCROSE 0.000	
28	H5	0.8258 2.7680 4.8636	H	1	SUCROSE 0.000	
29	H6	-0.3494 3.3686 1.5241	H	1	SUCROSE 0.000
30	H7	-0.0847 1.2708 -1.3545	H	1	SUCROSE 0.000
31	H8	3.6526 2.4895 0.3020	H	1	SUCROSE 0.000
32	H9	3.4726 2.2980 3.2853	H	1	SUCROSE 0.000
33	H10	4.2667 4.1346 4.5001	H	1	SUCROSE 0.000
34	H11	2.0857 5.6143 3.3555	H	1	SUCROSE 0.000
35	H12	4.8596 5.8929 2.8890	H	1	SUCROSE 0.000
36	H13	2.9644 4.8396 1.0500	H	1	SUCROSE 0.000
37	H14	4.6796 5.8668 -0.0659	H	1	SUCROSE 0.000
38	H15	4.5949 4.2913 -0.5433	H	1	SUCROSE 0.000
39	H16	0.5717 0.2872 3.8430	H	1	SUCROSE 0.000
40	H17	1.9375 0.9314 4.3986	H	1	SUCROSE 0.000
41	H18	-0.4764 0.8008 1.8948	H	1	SUCROSE 0.000
42	H19	0.9423 2.2631 -0.0146	H	1	SUCROSE 0.000
43	H20	1.5987 -0.2350 0.5021	H	1	SUCROSE 0.000
44	H21	3.8644 0.1306 0.0204	H	1	SUCROSE 0.000
45	H22	2.8586 0.3134 -1.2622	H	1	SUCROSE 0.000


@<TRIPOS>BOND
	1	1	12	1
2	2	13	1
3	3	14	1
4	4	15	1
5	5	12	1
6	6	17	1	
7	7	18	1
8	8	19	1
9	9	20	1
10	10	21	1
11	11	23	1
12	12	13	1	
13	13	14	1
14	14	15	1
15	15	16	1
16	16	5	1
17	17	16	1
18	18	19	1
19	19	1	1
20	20	19	1
21	21	20	1
22	22	8	1
23	23	22	1
24	24	2	1
25	25	3	1
26	26	4	1
27	27	6	1
28	28	7	1
29	29	9	1
30	30	10	1
31	31	11	1
32	32	12	1
33	33	13	1
34	34	14	1
35	35	15	1
36	36	16	1
37	37	17	1	
38	38	17	1
39	39	18	1
40	40	18	1
41	41	20	1
42	42	21	1
43	43	22	1
44	44	23	1
45	45	23	1
46	21	22	1

@<TRIPOS>SUBSTRUCTURE
1       SUCROSE 1       PERM    0       ****    ****    0       ROOT